LTspice 24.0.12 for Windows
Circuit: * C:\Users\anneg\Documents\STM\Power_Supply\Spice Sim\Draft1.asc
Start Time: Wed Mar  5 13:08:55 2025
solver = Normal
Maximum thread count: 12
tnom = 27
temp = 27
method = modified trap
WARNING: Node N003 is floating.

.OP point found by inspection.
Total elapsed time: 0.203 seconds.

