LTspice 24.0.12 for Windows
Circuit: * C:\Users\anneg\Documents\STM\Power_Supply\Spice Sim\Draft.asc
Start Time: Sat Jun 14 03:13:41 2025
solver = Normal
Maximum thread count: 12
tnom = 27
temp = 27
method = modified trap
Direct Newton iteration for .op point succeeded.
Total elapsed time: 0.474 seconds.

